@<TRIPOS>MOLECULE
2GS7&ANP.pdb
31 33 1 0 0
SMALL
NO_CHARGES


@<TRIPOS>ATOM
      1 PG         24.4110    1.0680   10.5240 P.3       1 ANP    0.0000
      2 O1G        24.3880   -0.3890   10.9060 O.co2     1 ANP    0.0000
      3 O2G        24.5650    1.9960   11.6910 O.co2     1 ANP    0.0000
      4 O3G        25.3110    1.3880    9.3660 O.co2     1 ANP    0.0000
      5 PB         22.2340    1.4190    8.4300 P.3       1 ANP    0.0000
      6 O1B        21.0020    0.6150    8.4690 O.co2     1 ANP    0.0000
      7 O2B        23.2800    1.0990    7.4170 O.co2     1 ANP    0.0000
      8 N3B        22.8960    1.3860    9.9490 N.pl3     1 ANP    0.0000
      9 PA         21.0080    3.8880    7.3770 P.3       1 ANP    0.0000
     10 O1A        21.5010    5.2890    7.4300 O.co2     1 ANP    0.0000
     11 O2A        20.8050    3.2920    6.0500 O.co2     1 ANP    0.0000
     12 O3A        21.8570    2.9100    8.3060 O.3       1 ANP    0.0000
     13 O5'        19.6580    3.7710    8.1690 O.3       1 ANP    0.0000
     14 C5'        19.5260    4.3530    9.4810 C.3       1 ANP    0.0000
     15 C4'        18.3420    3.8290   10.2300 C.3       1 ANP    0.0000
     16 O4'        17.1730    4.1900    9.4740 O.3       1 ANP    0.0000
     17 C3'        18.3300    2.3060   10.3980 C.3       1 ANP    0.0000
     18 O3'        18.0780    2.0780   11.7990 O.3       1 ANP    0.0000
     19 C2'        17.1920    1.8510    9.5120 C.3       1 ANP    0.0000
     20 O2'        16.3800    0.8140   10.0870 O.3       1 ANP    0.0000
     21 C1'        16.3010    3.0780    9.3010 C.3       1 ANP    0.0000
     22 N9         15.6740    3.1360    7.9540 N.ar      1 ANP    0.0000
     23 C8         16.2730    3.3580    6.7300 C.ar      1 ANP    0.0000
     24 N7         15.4610    3.3490    5.7050 N.ar      1 ANP    0.0000
     25 C5         14.2300    3.1050    6.2950 C.ar      1 ANP    0.0000
     26 C6         12.8950    2.9710    5.7550 C.ar      1 ANP    0.0000
     27 N6         12.6720    3.0800    4.4600 N.pl3     1 ANP    0.0000
     28 N1         11.8650    2.7280    6.6220 N.ar      1 ANP    0.0000
     29 C2         12.1170    2.6190    7.9460 C.ar      1 ANP    0.0000
     30 N3         13.3160    2.7220    8.5760 N.ar      1 ANP    0.0000
     31 C4         14.3490    2.9720    7.6750 C.ar      1 ANP    0.0000
@<TRIPOS>BOND
     1   21   16 1
     2   21   19 1
     3   21   22 1
     4   29   28 ar
     5   29   30 ar
     6   19   17 1
     7   19   20 1
     8   17   15 1
     9   17   18 1
    10   31   22 ar
    11   31   25 ar
    12   31   30 ar
    13   15   14 1
    14   15   16 1
    15   25   24 ar
    16   25   26 ar
    17   14   13 1
    18   26   27 1
    19   26   28 ar
    20   23   22 ar
    21   23   24 ar
    22    8    1 1
    23    8    5 1
    24   10    9 1
    25    6    5 1
    26    2    1 1
    27   11    9 1
    28    7    5 1
    29    3    1 1
    30   12    5 1
    31   12    9 1
    32    4    1 1
    33   13    9 1
@<TRIPOS>SUBSTRUCTURE
     1 ANP    15 RESIDUE           4 A     ANP     0 ROOT
